/*--------------------------------*- C++ -*----------------------------------*\
| =========                 |                                                 |
| \\      /  F ield         | OpenFOAM: The Open Source CFD Toolbox           |
|  \\    /   O peration     | Version:  3.0.1                                 |
|   \\  /    A nd           | Web:      www.OpenFOAM.org                      |
|    \\/     M anipulation  |                                                 |
\*---------------------------------------------------------------------------*/
FoamFile
{
    version     2.0;
    format      ascii;
    class       featureEdgeMesh;
    location    "constant/triSurface";
    object      mapconnect.eMesh;
}
// * * * * * * * * * * * * * * * * * * * * * * * * * * * * * * * * * * * * * //


// points:

1000
(
(-4.99998 -0.130413 0.621926)
(-4.99998 -0.133685 0.624812)
(-4.99998 -0.0903888 0.584652)
(-4.99998 -0.0935629 0.586512)
(-4.99998 -0.164499 0.650512)
(-4.99998 -0.0391579 0.560353)
(-4.99998 -0.205702 0.678938)
(-4.99998 -0.00724907 0.537889)
(-4.99998 -0.00434141 0.535993)
(-4.99998 -0.254884 0.710888)
(-4.99998 0.0373793 0.51228)
(-4.99998 0.040269 0.510446)
(-4.99998 -0.29968 0.73712)
(-4.99998 -0.338295 0.758266)
(-4.99998 -0.34329 0.760787)
(-4.99998 0.0742961 0.487579)
(-4.99998 0.080308 0.48426)
(-4.99998 0.0771784 0.485746)
(-4.99998 -0.389819 0.781887)
(-4.99998 -0.395189 0.784182)
(-4.99998 0.1474 0.456596)
(-4.99998 0.150681 0.454919)
(-4.99998 -0.439414 0.801233)
(-4.99998 -0.486116 0.816805)
(-4.99998 -0.49212 0.81861)
(-4.99998 0.18264 0.436313)
(-4.99998 0.185964 0.43448)
(-4.99998 -0.534457 0.828429)
(-4.99998 0.275379 0.391028)
(-4.99998 0.278979 0.388778)
(-4.99998 0.347823 0.341262)
(-4.99998 0.308407 0.365569)
(-4.99998 0.312041 0.363102)
(-4.99998 0.372326 0.325513)
(-4.99998 0.39291 0.316181)
(-4.99998 0.367777 0.328003)
(-4.99998 -0.578113 0.835926)
(-4.99998 -0.584432 0.83676)
(-4.99998 -0.622973 0.841026)
(-4.99998 -0.629415 0.841437)
(-4.99998 -0.668277 0.842479)
(-4.99998 -0.674843 0.842524)
(-4.99998 -0.720097 0.83946)
(-4.99998 -0.726657 0.838898)
(-4.99998 -0.752459 0.835287)
(-4.99998 -0.771621 0.831652)
(-4.99998 -0.809678 0.822519)
(-4.99998 -0.815968 0.820743)
(-4.99998 -0.834615 0.814841)
(-4.99998 -0.840801 0.812744)
(-4.99998 -0.853025 0.808238)
(-4.99998 -0.868917 0.808)
(-4.99998 -0.87834 0.809498)
(-4.99998 -0.860202 0.807226)
(-4.99998 -0.894849 0.809359)
(-4.99998 -0.921762 0.810801)
(-4.99998 -0.929111 0.809253)
(-4.99998 -0.935652 0.80675)
(-4.99998 -0.941987 0.803979)
(-4.99998 -0.948497 0.801352)
(-4.99998 -0.955197 0.798879)
(-4.99998 -0.962176 0.796643)
(-4.99998 -0.969636 0.794843)
(-4.99998 -0.976873 0.792747)
(-4.99998 0.418183 0.30318)
(-4.99998 0.413408 0.305994)
(-4.99998 -0.984012 0.790489)
(-4.99998 0.449032 0.281289)
(-4.99998 0.444014 0.284319)
(-4.99998 0.470217 0.269039)
(-4.99998 -0.99088 0.787903)
(-4.99998 -0.997292 0.784818)
(-4.99998 -1.00319 0.781193)
(-4.99998 -1.01912 0.76851)
(-4.99998 -1.04408 0.754636)
(-4.99998 -1.05049 0.751217)
(-4.99998 -1.02458 0.764383)
(-4.99998 -1.06094 0.742243)
(-4.99998 -1.06798 0.739243)
(-4.99998 -1.07612 0.737107)
(-4.99998 -1.08417 0.734816)
(-4.99998 -1.08934 0.730117)
(-4.99998 0.474634 0.265563)
(-4.99998 -1.13011 0.708854)
(-4.99998 -1.14068 0.707913)
(-4.99998 -1.1504 0.706232)
(-4.99998 -1.10439 0.71558)
(-4.99998 -1.15764 0.702658)
(-4.99998 -1.11078 0.71175)
(-4.99998 -1.16509 0.699181)
(-4.99998 -1.17367 0.696427)
(-4.99998 -1.18034 0.692276)
(-4.99998 -1.18609 0.687458)
(-4.99998 -1.20118 0.671391)
(-4.99998 -1.2094 0.668051)
(-4.99998 -1.21745 0.664526)
(-4.99998 -1.19592 0.676612)
(-4.99998 -1.22796 0.653807)
(-4.99998 0.522684 0.219393)
(-4.99998 0.518743 0.223461)
(-4.99998 0.540298 0.198062)
(-4.99998 -1.23899 0.643306)
(-4.99998 -1.24394 0.637674)
(-4.99998 -1.24791 0.631456)
(-4.99998 -1.28479 0.584132)
(-4.99998 -1.2908 0.578852)
(-4.99998 -1.2522 0.616931)
(-4.99998 -1.26568 0.599149)
(-4.99998 -1.25583 0.610537)
(-4.99998 -1.29305 0.571639)
(-4.99998 -1.26015 0.604521)
(-4.99998 0.561639 0.176541)
(-4.99998 0.565717 0.172074)
(-4.99998 0.544091 0.193751)
(-4.99998 0.572519 0.162809)
(-4.99998 0.582893 0.148678)
(-4.99998 0.642271 0.0898811)
(-4.99998 0.638011 0.0951373)
(-4.99998 0.586909 0.143968)
(-4.99998 -1.30344 0.535432)
(-4.99998 -1.30074 0.542346)
(-4.99998 -1.32797 0.48147)
(-4.99998 -1.3151 0.508202)
(-4.99998 -1.32942 0.466127)
(-4.99998 -1.33086 0.450893)
(-4.99998 0.656932 0.0626785)
(-4.99998 0.654495 0.0682031)
(-4.99998 0.678019 -0.00558515)
(-4.99998 0.680339 -0.0114621)
(-4.99998 0.698636 -0.0419474)
(-4.99998 0.788277 -0.108455)
(-4.99998 0.770064 -0.0993692)
(-4.99998 0.749135 -0.0901675)
(-4.99998 0.734325 -0.0820169)
(-4.99998 0.693654 -0.0356385)
(-4.99998 0.883444 -0.165574)
(-4.99998 0.939574 -0.191198)
(-4.99998 0.962917 -0.203625)
(-4.99998 0.98258 -0.215603)
(-4.99998 1.007 -0.237067)
(-4.99998 -1.3361 0.398442)
(-4.99998 -1.33764 0.383668)
(-4.99998 -1.34393 0.355258)
(-4.99998 -1.34558 0.348191)
(-4.99998 -1.33861 0.376373)
(-4.99998 1.02363 -0.257422)
(-4.99998 1.01564 -0.247252)
(-4.99998 1.02807 -0.275271)
(-4.99998 1.02627 -0.266422)
(-4.99998 1.02957 -0.284094)
(-4.99998 1.02036 -0.315554)
(-4.99998 1.02314 -0.307823)
(-4.99998 -1.34495 0.333033)
(-4.99998 -1.34367 0.317828)
(-4.99998 -1.34556 0.310892)
(-4.99998 -1.34691 0.303824)
(-4.99998 -1.34418 0.325381)
(-4.99998 -1.34788 0.296672)
(-4.99998 -1.34794 0.289325)
(-4.99998 -1.34871 0.267521)
(-4.99998 -1.34728 0.274527)
(-4.99998 -1.36136 0.240728)
(-4.99998 -1.37375 0.228185)
(-4.99998 -1.37826 0.22155)
(-4.99998 -1.35731 0.247298)
(-4.99998 -1.38822 0.200886)
(-4.99998 0.995825 -0.3764)
(-4.99998 -1.39191 0.193987)
(-4.99998 -1.40073 0.180261)
(-4.99998 -1.40466 0.173275)
(-4.99998 0.991088 -0.383393)
(-4.99998 0.964613 -0.416867)
(-4.99998 0.958766 -0.423241)
(-4.99998 0.932462 -0.447097)
(-4.99998 0.939615 -0.441448)
(-4.99998 0.923032 -0.451716)
(-4.99998 0.907448 -0.462116)
(-4.99998 0.915504 -0.457065)
(-4.99998 0.889449 -0.471138)
(-4.99998 0.869369 -0.478829)
(-4.99998 0.785681 -0.536983)
(-4.99998 0.794694 -0.525138)
(-4.99998 0.782384 -0.543579)
(-4.99998 0.773883 -0.564239)
(-4.99998 0.767198 -0.594972)
(-4.99998 0.763857 -0.60168)
(-4.99998 0.841732 -0.490812)
(-4.99998 0.771809 -0.571619)
(-4.99998 0.758196 -0.606887)
(-4.99998 0.83341 -0.495069)
(-4.99998 0.751797 -0.611577)
(-4.99998 0.817919 -0.503946)
(-4.99998 0.742318 -0.614161)
(-4.99998 0.731462 -0.615711)
(-4.99998 0.811741 -0.509105)
(-4.99998 0.800041 -0.519647)
(-4.99998 -1.40454 0.165815)
(-4.99998 -1.40372 0.158297)
(-4.99998 -1.39588 0.150135)
(-4.99998 -1.38463 0.14178)
(-4.99998 -1.35926 0.125305)
(-4.99998 -1.34401 0.117141)
(-4.99998 0.658854 -0.63434)
(-4.99998 0.696933 -0.618228)
(-4.99998 0.650781 -0.637012)
(-4.99998 0.68629 -0.619412)
(-4.99998 0.679137 -0.623007)
(-4.99998 -1.23636 0.103362)
(-4.99998 -1.05093 0.0556912)
(-4.99998 -1.0465 0.0453933)
(-4.99998 -1.07222 0.0877485)
(-4.99998 -1.04418 0.040287)
(-4.99998 -1.06142 0.0767105)
(-4.99998 -1.05837 0.071387)
(-4.99998 -1.0337 0.0252077)
(-4.99998 -1.02753 0.0153435)
(-4.99998 -1.03706 0.0301925)
(-4.99998 -1.02367 0.010496)
(-4.99998 -1.01905 0.00572789)
(-4.99998 -1.01546 0.000963802)
(-4.99998 -1.01033 -0.0429738)
(-4.99998 -1.01336 -0.00384275)
(-4.99998 -1.01306 -0.0482221)
(-4.99998 -1.01142 -0.00863611)
(-4.99998 -1.02551 -0.0698528)
(-4.99998 -1.00998 -0.0134437)
(-4.99998 -1.02836 -0.0753422)
(-4.99998 -1.00994 -0.0183433)
(-4.99998 -1.02731 -0.0802858)
(-4.99998 -1.02613 -0.085204)
(-4.99998 -1.02419 -0.0899927)
(-4.99998 -1.01719 -0.098972)
(-4.99998 -1.01028 -0.107833)
(-4.99998 -1.00583 -0.112017)
(-4.99998 -0.998841 -0.115638)
(-4.99998 -0.984769 -0.117691)
(-4.99998 -0.967075 -0.118786)
(-4.99998 -0.907556 -0.141756)
(-4.99998 -0.903495 -0.145182)
(-4.99998 -0.89856 -0.14832)
(-4.99998 -0.911895 -0.138364)
(-4.99998 -0.952416 -0.120341)
(-4.99998 -0.942654 -0.122841)
(-4.99998 -0.921083 -0.131579)
(-4.99998 -0.882688 -0.157105)
(-4.99998 -0.927199 -0.128487)
(-4.99998 -0.866699 -0.165351)
(-4.99998 0.554005 -0.654265)
(-4.99998 0.545891 -0.655867)
(-4.99998 0.578039 -0.648698)
(-4.99998 0.518025 -0.656895)
(-4.99998 0.509292 -0.657532)
(-4.99998 -0.846671 -0.184717)
(-4.99998 -0.862727 -0.168439)
(-4.99998 0.41367 -0.666808)
(-4.99998 0.402895 -0.663874)
(-4.99998 0.366892 -0.649767)
(-4.99998 0.380225 -0.656199)
(-4.99998 0.319225 -0.628217)
(-4.99998 0.297186 -0.626787)
(-4.99998 0.32772 -0.629867)
(-4.99998 0.291973 -0.628825)
(-4.99998 0.25735 -0.644746)
(-4.99998 -0.841903 -0.213835)
(-4.99998 -0.848848 -0.221288)
(-4.99998 -0.855415 -0.228706)
(-4.99998 -0.843669 -0.187973)
(-4.99998 -0.861226 -0.235913)
(-4.99998 -0.835622 -0.20678)
(-4.99998 -0.863724 -0.241751)
(-4.99998 -0.836279 -0.202637)
(-4.99998 -0.865229 -0.247201)
(-4.99998 0.205524 -0.661703)
(-4.99998 0.21038 -0.659643)
(-4.99998 0.219899 -0.65517)
(-4.99998 0.224881 -0.653245)
(-4.99998 -0.862779 -0.250871)
(-4.99998 -0.851017 -0.264488)
(-4.99998 -0.860076 -0.288789)
(-4.99998 -0.861287 -0.294473)
(-4.99998 -0.849493 -0.27342)
(-4.99998 -0.849275 -0.268453)
(-4.99998 0.173756 -0.669063)
(-4.99998 0.168449 -0.670123)
(-4.99998 0.124649 -0.674292)
(-4.99998 0.0940549 -0.679812)
(-4.99998 0.0889127 -0.680493)
(-4.99998 0.119402 -0.67501)
(-4.99998 -0.864576 -0.311659)
(-4.99998 -0.864943 -0.317082)
(-4.99998 -0.863465 -0.33745)
(-4.99998 -0.861219 -0.352371)
(-4.99998 -0.859011 -0.356478)
(-4.99998 -0.855519 -0.359764)
(-4.99998 -0.850933 -0.362317)
(-4.99998 -0.839987 -0.360629)
(-4.99998 -0.811787 -0.357838)
(-4.99998 -0.795531 -0.357139)
(-4.99998 -0.829902 -0.359365)
(-4.99998 -0.768885 -0.364094)
(-4.99998 -0.753178 -0.378492)
(-4.99998 -0.761689 -0.369178)
(-4.99998 -0.764598 -0.366119)
(-4.99998 -0.787874 -0.35697)
(-4.99998 -0.743662 -0.386924)
(-4.99998 -0.782674 -0.358486)
(-4.99998 -0.74001 -0.389306)
(-4.99998 0.0832681 -0.679986)
(-4.99998 0.0606968 -0.677081)
(-4.99998 -0.698459 -0.390586)
(-4.99998 -0.7031 -0.389437)
(-4.99998 0.0233646 -0.674042)
(-4.99998 0.0182566 -0.673902)
(-4.99998 -0.666312 -0.403224)
(-4.99998 -0.662332 -0.404703)
(-4.99998 -0.657775 -0.405544)
(-4.99998 -0.647668 -0.406014)
(-4.99998 -0.642359 -0.405879)
(-4.99998 -0.618456 -0.401575)
(-4.99998 -0.598 -0.399944)
(-4.99998 -0.629824 -0.403254)
(-4.99998 -0.562504 -0.412122)
(-4.99998 -0.55767 -0.417456)
(-4.99998 -0.623836 -0.402111)
(-4.99998 -0.593121 -0.399645)
(-4.99998 -0.588687 -0.399831)
(-4.99998 -0.584384 -0.40013)
(-4.99998 -0.580341 -0.400709)
(-4.99998 -0.526049 -0.475824)
(-4.99998 -0.573563 -0.403449)
(-4.99998 -0.523559 -0.47901)
(-4.99998 -0.57039 -0.405075)
(-4.99998 -0.555362 -0.420305)
(-4.99998 -0.567662 -0.407284)
(-4.99998 -0.565043 -0.409644)
(-4.99998 -0.511602 -0.488381)
(-4.99998 -0.5096 -0.492677)
(-4.99998 -0.494849 -0.542728)
(-4.99998 -0.492895 -0.548252)
(-4.99998 -0.466131 -0.617959)
(-4.99998 -0.0308848 -0.674928)
(-4.99998 -0.0356583 -0.675193)
(-4.99998 -0.0402664 -0.676022)
(-4.99998 -0.101926 -0.701603)
(-4.99998 -0.0808312 -0.686905)
(-4.99998 -0.0765453 -0.684639)
(-4.99998 -0.106571 -0.702528)
(-4.99998 -0.462587 -0.621129)
(-4.99998 -0.455137 -0.626602)
(-4.99998 -0.451115 -0.62851)
(-4.99998 -0.446984 -0.6301)
(-4.99998 -0.442415 -0.630292)
(-4.99998 -0.432983 -0.629535)
(-4.99998 -0.428157 -0.62866)
(-4.99998 -0.417905 -0.62444)
(-4.99998 -0.412854 -0.622362)
(-4.99998 -0.402897 -0.618264)
(-4.99998 -0.374682 -0.60908)
(-4.99998 -0.398015 -0.616351)
(-4.99998 -0.316387 -0.613381)
(-4.99998 -0.331975 -0.605748)
(-4.99998 -0.379108 -0.609743)
(-4.99998 -0.312418 -0.615048)
(-4.99998 -0.308449 -0.616854)
(-4.99998 -0.348665 -0.605816)
(-4.99998 -0.255666 -0.655198)
(-4.99998 -0.336035 -0.605142)
(-4.99998 -0.304556 -0.619527)
(-4.99998 -0.121431 -0.699288)
(-4.99998 -0.146299 -0.68927)
(-4.99998 -0.151088 -0.688012)
(-4.99998 -0.215632 -0.682807)
(-4.99998 -0.220187 -0.682319)
(-4.99998 -0.165282 -0.684662)
(-4.99998 -0.169948 -0.683829)
(-4.99998 -0.224766 -0.67935)
(-4.99998 -0.238255 -0.667156)
(-4.99998 -0.23381 -0.67086)
(-4.99998 -0.10247 0.595028)
(-4.99998 -0.105478 0.597926)
(-4.99998 -0.10851 0.600845)
(-4.99998 -0.111564 0.603789)
(-4.99998 -0.114643 0.606754)
(-4.99998 -0.117745 0.609744)
(-4.99998 -0.120873 0.612757)
(-4.99998 -0.124025 0.615797)
(-4.99998 -0.127205 0.618857)
(-4.99998 -0.140347 0.630385)
(-4.99998 -0.143716 0.633206)
(-4.99998 -0.14711 0.636046)
(-4.99998 -0.137004 0.627587)
(-4.99998 -0.150531 0.638906)
(-4.99998 -0.0994842 0.592149)
(-4.99998 -0.0838984 0.581583)
(-4.99998 -0.0871399 0.583116)
(-4.99998 -0.0806643 0.580052)
(-4.99998 -0.0774369 0.578525)
(-4.99998 -0.0965197 0.589294)
(-4.99998 -0.0710008 0.575482)
(-4.99998 -0.0742153 0.577004)
(-4.99998 -0.0677926 0.573962)
(-4.99998 -0.153979 0.641793)
(-4.99998 -0.0613911 0.570937)
(-4.99998 -0.0645888 0.572449)
(-4.99998 -0.157454 0.644702)
(-4.99998 -0.0581994 0.569424)
(-4.99998 -0.160958 0.647632)
(-4.99998 -0.0518286 0.566411)
(-4.99998 -0.0550115 0.567917)
(-4.99998 -0.168108 0.65305)
(-4.99998 -0.0486502 0.564906)
(-4.99998 -0.171742 0.655604)
(-4.99998 -0.0423048 0.561905)
(-4.99998 -0.0454754 0.563405)
(-4.99998 -0.175402 0.658177)
(-4.99998 -0.179088 0.660768)
(-4.99998 -0.182804 0.663342)
(-4.99998 -0.18655 0.665898)
(-4.99998 -0.0362131 0.558283)
(-4.99998 -0.190323 0.66847)
(-4.99998 -0.0332788 0.556218)
(-4.99998 -0.194125 0.671062)
(-4.99998 -0.0303537 0.554158)
(-4.99998 -0.197954 0.673673)
(-4.99998 -0.0274376 0.552104)
(-4.99998 -0.201813 0.676305)
(-4.99998 -0.0245298 0.550057)
(-4.99998 -0.02163 0.548016)
(-4.99998 -0.209625 0.681495)
(-4.99998 -0.0187384 0.545981)
(-4.99998 -0.213578 0.684061)
(-4.99998 -0.0158548 0.543951)
(-4.99998 -0.217561 0.686648)
(-4.99998 -0.0129789 0.541925)
(-4.99998 -0.221575 0.689255)
(-4.99998 -0.0101106 0.539904)
(-4.99998 -0.225621 0.691882)
(-4.99998 -0.229699 0.694531)
(-4.99998 -0.23381 0.697201)
(-4.99998 -0.00136606 0.534255)
(-4.99998 -0.237954 0.699892)
(-4.99998 0.00162475 0.532558)
(-4.99998 -0.242133 0.702606)
(-4.99998 0.00461226 0.530862)
(-4.99998 -0.246347 0.705343)
(-4.99998 0.00759802 0.529168)
(-4.99998 -0.250597 0.708104)
(-4.99998 0.0105818 0.527475)
(-4.99998 0.0135638 0.525785)
(-4.99998 -0.259201 0.713488)
(-4.99998 0.016544 0.524094)
(-4.99998 -0.26355 0.71603)
(-4.99998 0.0195234 0.522406)
(-4.99998 -0.267934 0.718594)
(-4.99998 0.0225018 0.520719)
(-4.99998 -0.272354 0.72118)
(-4.99998 0.0254785 0.519031)
(-4.99998 -0.276812 0.723784)
(-4.99998 0.0284535 0.517342)
(-4.99998 -0.281307 0.726409)
(-4.99998 0.0314283 0.515653)
(-4.99998 -0.28584 0.729059)
(-4.99998 0.034404 0.513967)
(-4.99998 -0.290414 0.731733)
(-4.99998 -0.295028 0.734429)
(-4.99998 0.0431112 0.508535)
(-4.99998 -0.304359 0.739693)
(-4.99998 0.0459521 0.506626)
(-4.99998 -0.309078 0.742273)
(-4.99998 0.0487908 0.504718)
(-4.99998 -0.313839 0.744879)
(-4.99998 0.0516285 0.502812)
(-4.99998 -0.318641 0.747508)
(-4.99998 0.0544647 0.500906)
(-4.99998 -0.323488 0.750162)
(-4.99998 0.0572993 0.499001)
(-4.99998 -0.328378 0.75284)
(-4.99998 0.0601325 0.497096)
(-4.99998 -0.333313 0.755539)
(-4.99998 0.0629651 0.495191)
(-4.99998 0.065798 0.493288)
(-4.99998 0.0686312 0.491386)
(-4.99998 -0.348285 0.763054)
(-4.99998 0.0714638 0.489483)
(-4.99998 0.0867388 0.481484)
(-4.99998 0.0835191 0.482874)
(-4.99998 0.0932068 0.478694)
(-4.99998 0.0899686 0.480092)
(-4.99998 0.0997143 0.475888)
(-4.99998 0.0964557 0.477293)
(-4.99998 -0.353321 0.765337)
(-4.99998 0.102982 0.474476)
(-4.99998 -0.3584 0.76764)
(-4.99998 -0.363522 0.769962)
(-4.99998 0.11976 0.467679)
(-4.99998 0.11637 0.469038)
(-4.99998 0.11299 0.470388)
(-4.99998 -0.368689 0.772306)
(-4.99998 0.126585 0.464949)
(-4.99998 0.123166 0.466317)
(-4.99998 -0.3739 0.774668)
(-4.99998 0.130016 0.463573)
(-4.99998 -0.379159 0.777053)
(-4.99998 -0.384464 0.779458)
(-4.99998 0.136929 0.460808)
(-4.99998 0.133467 0.462195)
(-4.99998 0.140408 0.459415)
(-4.99998 0.143903 0.458017)
(-4.99998 -0.400555 0.786262)
(-4.99998 -0.405965 0.788355)
(-4.99998 -0.411422 0.790469)
(-4.99998 -0.416925 0.792599)
(-4.99998 0.109627 0.471737)
(-4.99998 -0.422478 0.79475)
(-4.99998 0.106285 0.473092)
(-4.99998 -0.42808 0.796919)
(-4.99998 0.153833 0.453084)
(-4.99998 -0.433732 0.799108)
(-4.99998 0.156993 0.451245)
(-4.99998 -0.445077 0.803125)
(-4.99998 0.160163 0.449399)
(-4.99998 -0.450787 0.80503)
(-4.99998 -0.456546 0.80695)
(-4.99998 -0.462354 0.808885)
(-4.99998 0.163342 0.447547)
(-4.99998 -0.468215 0.810838)
(-4.99998 0.166532 0.445691)
(-4.99998 -0.474128 0.812809)
(-4.99998 0.169732 0.443829)
(-4.99998 -0.480094 0.814797)
(-4.99998 0.172943 0.44196)
(-4.99998 0.176164 0.440085)
(-4.99998 0.179397 0.438202)
(-4.99998 -0.498031 0.819998)
(-4.99998 -0.50398 0.821373)
(-4.99998 0.189422 0.432753)
(-4.99998 -0.509977 0.822763)
(-4.99998 0.192907 0.431027)
(-4.99998 -0.516022 0.824162)
(-4.99998 0.196408 0.429291)
(-4.99998 -0.522117 0.825574)
(-4.99998 0.199926 0.427547)
(-4.99998 -0.528261 0.826995)
(-4.99998 0.203465 0.425796)
(-4.99998 0.207021 0.424036)
(-4.99998 -0.540565 0.829516)
(-4.99998 0.214186 0.420484)
(-4.99998 0.210594 0.422265)
(-4.99998 0.225085 0.415086)
(-4.99998 0.221433 0.416896)
(-4.99998 0.217799 0.418695)
(-4.99998 0.251529 0.402311)
(-4.99998 0.247642 0.404142)
(-4.99998 0.243778 0.405959)
(-4.99998 0.228758 0.413266)
(-4.99998 0.239939 0.407764)
(-4.99998 0.232453 0.411435)
(-4.99998 0.255442 0.400468)
(-4.99998 0.263354 0.396746)
(-4.99998 0.259386 0.398614)
(-4.99998 0.23617 0.409594)
(-4.99998 0.267349 0.394864)
(-4.99998 0.271375 0.392971)
(-4.99998 -0.546702 0.830562)
(-4.99998 -0.552886 0.831618)
(-4.99998 -0.559117 0.832681)
(-4.99998 -0.565399 0.833755)
(-4.99998 0.285421 0.383698)
(-4.99998 0.282194 0.386243)
(-4.99998 0.298467 0.373407)
(-4.99998 0.295184 0.375997)
(-4.99998 0.291915 0.378574)
(-4.99998 0.288661 0.381141)
(-4.99998 0.327665 0.35357)
(-4.99998 0.323718 0.355978)
(-4.99998 0.319798 0.358368)
(-4.99998 0.331639 0.351145)
(-4.99998 0.335642 0.348702)
(-4.99998 0.339675 0.346242)
(-4.99998 0.301765 0.370806)
(-4.99998 0.343738 0.343763)
(-4.99998 0.305078 0.368194)
(-4.99998 0.315906 0.360743)
(-4.99998 0.355765 0.336039)
(-4.99998 0.351817 0.338679)
(-4.99998 0.363743 0.330701)
(-4.99998 0.35974 0.33338)
(-4.99998 0.382556 0.320921)
(-4.99998 0.377413 0.32323)
(-4.99998 0.387757 0.318588)
(-4.99998 0.397955 0.313676)
(-4.99998 0.403048 0.311142)
(-4.99998 -0.571731 0.834836)
(-4.99998 -0.597085 0.83816)
(-4.99998 -0.603483 0.838869)
(-4.99998 -0.609929 0.839582)
(-4.99998 -0.590735 0.837456)
(-4.99998 -0.616426 0.840302)
(-4.99998 -0.635781 0.841607)
(-4.99998 -0.64219 0.841779)
(-4.99998 -0.648643 0.841952)
(-4.99998 -0.655142 0.842127)
(-4.99998 -0.661686 0.842302)
(-4.99998 -0.687575 0.841661)
(-4.99998 -0.693999 0.841227)
(-4.99998 -0.700462 0.84079)
(-4.99998 -0.68119 0.842094)
(-4.99998 -0.706965 0.840349)
(-4.99998 -0.71351 0.839906)
(-4.99998 -0.739484 0.837102)
(-4.99998 -0.745953 0.836198)
(-4.99998 -0.733052 0.838002)
(-4.99998 -0.758851 0.83414)
(-4.99998 -0.765249 0.832945)
(-4.99998 -0.777885 0.830148)
(-4.99998 -0.784181 0.828639)
(-4.99998 -0.790507 0.827122)
(-4.99998 -0.796866 0.825597)
(-4.99998 -0.803256 0.824062)
(-4.99998 -0.822156 0.818786)
(-4.99998 -0.828372 0.816819)
(-4.99998 -0.846925 0.810527)
(-4.99998 -0.886497 0.809366)
(-4.99998 -0.903735 0.809862)
(-4.99998 -0.912731 0.810372)
(-4.99998 0.408202 0.308583)
(-4.99998 0.426653 0.296994)
(-4.99998 0.422403 0.3001)
(-4.99998 0.439619 0.287527)
(-4.99998 0.435262 0.290709)
(-4.99998 0.43094 0.293864)
(-4.99998 0.464877 0.272168)
(-4.99998 0.459538 0.275242)
(-4.99998 0.454256 0.278282)
(-4.99998 -1.00849 0.776974)
(-4.99998 -1.0138 0.772745)
(-4.99998 -1.03754 0.757895)
(-4.99998 -1.03103 0.761139)
(-4.99998 -1.05575 0.746769)
(-4.99998 -1.09435 0.725279)
(-4.99998 0.478503 0.261875)
(-4.99998 0.494249 0.246856)
(-4.99998 0.490269 0.250651)
(-4.99998 0.486318 0.254419)
(-4.99998 0.482396 0.25816)
(-4.99998 0.498258 0.243032)
(-4.99998 -1.09936 0.720434)
(-4.99998 -1.12036 0.710295)
(-4.99998 0.506367 0.235297)
(-4.99998 0.502298 0.23918)
(-4.99998 -1.19101 0.682045)
(-4.99998 -1.22266 0.659152)
(-4.99998 0.514585 0.227438)
(-4.99998 0.51046 0.231383)
(-4.99998 0.529661 0.210943)
(-4.99998 0.526161 0.215181)
(-4.99998 0.536729 0.202384)
(-4.99998 0.533183 0.206677)
(-4.99998 -1.23347 0.648565)
(-4.99998 -1.25007 0.62419)
(-4.99998 -1.27837 0.589158)
(-4.99998 -1.27198 0.594155)
(-4.99998 0.557187 0.1809)
(-4.99998 0.552772 0.18522)
(-4.99998 0.548399 0.189501)
(-4.99998 0.569107 0.167456)
(-4.99998 0.579412 0.15342)
(-4.99998 0.575954 0.15813)
(-4.99998 0.611666 0.120208)
(-4.99998 0.606571 0.125057)
(-4.99998 0.60153 0.129854)
(-4.99998 0.622025 0.110349)
(-4.99998 0.616819 0.115306)
(-4.99998 0.632621 0.100266)
(-4.99998 0.627292 0.105336)
(-4.99998 0.591724 0.139311)
(-4.99998 0.59659 0.134605)
(-4.99998 0.651409 0.0736748)
(-4.99998 0.648344 0.0791112)
(-4.99998 0.645298 0.084513)
(-4.99998 -1.29503 0.564315)
(-4.99998 -1.29697 0.55699)
(-4.99998 -1.29886 0.549659)
(-4.99998 -1.30635 0.528621)
(-4.99998 -1.30926 0.521812)
(-4.99998 -1.31831 0.501523)
(-4.99998 -1.32155 0.494854)
(-4.99998 -1.3248 0.48818)
(-4.99998 -1.3287 0.473784)
(-4.99998 -1.31218 0.515004)
(-4.99998 -1.33014 0.458497)
(-4.99998 0.660395 0.0515245)
(-4.99998 0.658661 0.0571117)
(-4.99998 0.663884 0.040287)
(-4.99998 0.662137 0.0459165)
(-4.99998 0.667379 0.0289617)
(-4.99998 0.665632 0.0346356)
(-4.99998 0.670895 0.0175445)
(-4.99998 0.669134 0.0232649)
(-4.99998 0.674441 0.00603052)
(-4.99998 0.672665 0.0117999)
(-4.99998 0.676227 0.000235696)
(-4.99998 0.686943 -0.0234523)
(-4.99998 0.683628 -0.0174333)
(-4.99998 0.716109 -0.0615654)
(-4.99998 0.710205 -0.0549367)
(-4.99998 0.704382 -0.0483982)
(-4.99998 0.722095 -0.0682866)
(-4.99998 0.802718 -0.117213)
(-4.99998 0.817603 -0.12624)
(-4.99998 0.832952 -0.135549)
(-4.99998 0.849082 -0.145204)
(-4.99998 0.690284 -0.0295204)
(-4.99998 0.865909 -0.155207)
(-4.99998 0.911887 -0.178266)
(-4.99998 0.728167 -0.0751029)
(-4.99998 0.994652 -0.226214)
(-4.99998 -1.33377 0.420754)
(-4.99998 -1.33455 0.413296)
(-4.99998 -1.33533 0.405859)
(-4.99998 -1.33157 0.443316)
(-4.99998 -1.33229 0.435763)
(-4.99998 -1.33687 0.391046)
(-4.99998 -1.333 0.428236)
(-4.99998 -1.34216 0.362292)
(-4.99998 -1.34038 0.36933)
(-4.99998 -1.34527 0.340597)
(-4.99998 1.02749 -0.29202)
(-4.99998 1.02531 -0.299922)
(-4.99998 1.01421 -0.330815)
(-4.99998 1.01729 -0.32319)
(-4.99998 1.005 -0.35364)
(-4.99998 1.00807 -0.34604)
(-4.99998 1.01114 -0.338432)
(-4.99998 1.00194 -0.361233)
(-4.99998 -1.34761 0.281913)
(-4.99998 -1.35157 0.260798)
(-4.99998 -1.35443 0.254057)
(-4.99998 -1.36753 0.234484)
(-4.99998 -1.38157 0.214688)
(-4.99998 -1.38489 0.207801)
(-4.99998 0.998883 -0.36882)
(-4.99998 -1.39631 0.187145)
(-4.99998 0.985748 -0.390144)
(-4.99998 0.975137 -0.403561)
(-4.99998 0.980431 -0.396867)
(-4.99998 0.969864 -0.410227)
(-4.99998 0.952345 -0.429345)
(-4.99998 0.945961 -0.435414)
(-4.99998 0.898501 -0.466694)
(-4.99998 0.879353 -0.47501)
(-4.99998 0.790184 -0.531066)
(-4.99998 0.776722 -0.55734)
(-4.99998 0.779556 -0.550453)
(-4.99998 0.859965 -0.482823)
(-4.99998 0.768742 -0.587151)
(-4.99998 0.770279 -0.579367)
(-4.99998 0.850799 -0.486838)
(-4.99998 0.825576 -0.499497)
(-4.99998 0.719772 -0.616563)
(-4.99998 0.805877 -0.514388)
(-4.99998 0.708263 -0.617401)
(-4.99998 -1.3718 0.133447)
(-4.99998 0.665577 -0.630583)
(-4.99998 0.672336 -0.626805)
(-4.99998 -1.04871 0.0505279)
(-4.99998 -1.04064 0.0352175)
(-4.99998 -1.05337 0.0608892)
(-4.99998 -1.06678 0.0821919)
(-4.99998 -1.05586 0.0661211)
(-4.99998 0.641306 -0.638522)
(-4.99998 0.613536 -0.642947)
(-4.99998 0.622687 -0.641489)
(-4.99998 0.631941 -0.640014)
(-4.99998 -1.0306 0.0202573)
(-4.99998 0.586667 -0.647199)
(-4.99998 0.595525 -0.645798)
(-4.99998 0.604479 -0.64438)
(-4.99998 -1.01002 -0.0232565)
(-4.99998 -1.0101 -0.0281757)
(-4.99998 -1.01018 -0.0331015)
(-4.99998 -1.01026 -0.038034)
(-4.99998 -1.01613 -0.0535532)
(-4.99998 -1.01923 -0.0589345)
(-4.99998 -1.02236 -0.0643674)
(-4.99998 -1.02068 -0.0944975)
(-4.99998 -1.01372 -0.103417)
(-4.99998 -0.893203 -0.151285)
(-4.99998 -0.916465 -0.134989)
(-4.99998 -0.887916 -0.154213)
(-4.99998 -0.934731 -0.125662)
(-4.99998 -0.877303 -0.159892)
(-4.99998 -0.871966 -0.162639)
(-4.99998 0.561938 -0.652422)
(-4.99998 0.569944 -0.650562)
(-4.99998 0.527213 -0.656573)
(-4.99998 0.536519 -0.656247)
(-4.99998 0.484262 -0.65996)
(-4.99998 0.492515 -0.659159)
(-4.99998 0.500857 -0.658349)
(-4.99998 0.476094 -0.660751)
(-4.99998 0.460016 -0.662313)
(-4.99998 0.468014 -0.661537)
(-4.99998 0.452098 -0.66308)
(-4.99998 0.444261 -0.66384)
(-4.99998 -0.859476 -0.171733)
(-4.99998 -0.856248 -0.175008)
(-4.99998 -0.853036 -0.178263)
(-4.99998 -0.849846 -0.1815)
(-4.99998 0.428818 -0.66534)
(-4.99998 0.436502 -0.664594)
(-4.99998 0.421208 -0.666077)
(-4.99998 0.391436 -0.659996)
(-4.99998 0.304448 -0.62726)
(-4.99998 0.311794 -0.627736)
(-4.99998 0.353254 -0.64272)
(-4.99998 0.340159 -0.636035)
(-4.99998 0.277054 -0.635685)
(-4.99998 0.282013 -0.633405)
(-4.99998 0.286986 -0.631118)
(-4.99998 0.267176 -0.640227)
(-4.99998 0.272108 -0.63796)
(-4.99998 0.262257 -0.64249)
(-4.99998 0.251889 -0.646198)
(-4.99998 0.246436 -0.647617)
(-4.99998 0.24101 -0.649033)
(-4.99998 -0.84179 -0.191635)
(-4.99998 -0.839951 -0.195307)
(-4.99998 -0.838113 -0.198974)
(-4.99998 0.235608 -0.65044)
(-4.99998 0.215135 -0.657407)
(-4.99998 0.23023 -0.651841)
(-4.99998 0.200216 -0.663009)
(-4.99998 0.19488 -0.664229)
(-4.99998 -0.859824 -0.254293)
(-4.99998 -0.856878 -0.257703)
(-4.99998 -0.853943 -0.261101)
(-4.99998 -0.854722 -0.281014)
(-4.99998 -0.862372 -0.300143)
(-4.99998 -0.863469 -0.305871)
(-4.99998 0.184275 -0.666656)
(-4.99998 0.189568 -0.665446)
(-4.99998 0.179006 -0.667864)
(-4.99998 0.162908 -0.67072)
(-4.99998 0.151832 -0.671753)
(-4.99998 0.157355 -0.671239)
(-4.99998 0.135438 -0.673283)
(-4.99998 0.140875 -0.672777)
(-4.99998 0.146339 -0.672266)
(-4.99998 0.13003 -0.673789)
(-4.99998 0.104143 -0.6779)
(-4.99998 0.109213 -0.676941)
(-4.99998 0.114298 -0.675976)
(-4.99998 0.0990918 -0.678859)
(-4.99998 -0.864584 -0.322131)
(-4.99998 -0.864221 -0.327211)
(-4.99998 -0.863857 -0.332322)
(-4.99998 -0.862758 -0.34242)
(-4.99998 -0.86199 -0.347382)
(-4.99998 -0.80358 -0.357486)
(-4.99998 -0.778041 -0.360369)
(-4.99998 -0.773447 -0.362239)
(-4.99998 -0.820693 -0.358558)
(-4.99998 -0.758856 -0.37229)
(-4.99998 -0.756028 -0.375402)
(-4.99998 -0.750029 -0.381332)
(-4.99998 -0.746842 -0.384131)
(-4.99998 -0.733694 -0.389378)
(-4.99998 -0.727401 -0.38939)
(-4.99998 0.0718912 -0.678503)
(-4.99998 0.0775589 -0.679243)
(-4.99998 0.0444898 -0.675729)
(-4.99998 0.0498517 -0.67616)
(-4.99998 0.0552461 -0.676592)
(-4.99998 0.0662654 -0.677769)
(-4.99998 0.0338634 -0.674876)
(-4.99998 0.0391608 -0.675301)
(-4.99998 0.0285971 -0.674453)
(-4.99998 -0.721196 -0.389402)
(-4.99998 -0.715078 -0.389413)
(-4.99998 -0.694359 -0.392198)
(-4.99998 -0.690285 -0.393802)
(-4.99998 -0.686234 -0.395395)
(-4.99998 -0.682203 -0.396976)
(-4.99998 -0.709047 -0.389424)
(-4.99998 -0.678199 -0.398553)
(-4.99998 -0.674214 -0.400117)
(-4.99998 -0.670252 -0.401675)
(-4.99998 0.00325923 -0.674033)
(-4.99998 0.00823792 -0.67399)
(-4.99998 0.0132365 -0.673946)
(-4.99998 -0.652694 -0.40578)
(-4.99998 -0.613247 -0.401162)
(-4.99998 -0.6081 -0.400749)
(-4.99998 -0.636037 -0.404555)
(-4.99998 -0.60302 -0.400346)
(-4.99998 -0.56009 -0.414786)
(-4.99998 -0.553484 -0.4238)
(-4.99998 -0.551614 -0.427348)
(-4.99998 -0.54973 -0.430917)
(-4.99998 -0.547835 -0.434514)
(-4.99998 -0.545926 -0.438133)
(-4.99998 -0.544003 -0.441778)
(-4.99998 -0.542067 -0.445449)
(-4.99998 -0.540118 -0.449147)
(-4.99998 -0.538153 -0.452872)
(-4.99998 -0.536175 -0.456626)
(-4.99998 -0.534181 -0.460406)
(-4.99998 -0.532172 -0.464216)
(-4.99998 -0.530147 -0.468056)
(-4.99998 -0.528106 -0.471924)
(-4.99998 -0.576928 -0.402059)
(-4.99998 -0.520579 -0.481344)
(-4.99998 -0.517592 -0.483684)
(-4.99998 -0.5146 -0.48603)
(-4.99998 -0.00663732 -0.67412)
(-4.99998 -0.00169882 -0.674076)
(-4.99998 -0.506521 -0.503357)
(-4.99998 -0.50495 -0.508807)
(-4.99998 -0.503356 -0.51433)
(-4.99998 -0.508071 -0.497981)
(-4.99998 -0.501707 -0.519861)
(-4.99998 -0.500028 -0.525456)
(-4.99998 -0.498327 -0.531133)
(-4.99998 -0.4966 -0.536888)
(-4.99998 -0.490819 -0.553627)
(-4.99998 -0.488715 -0.559069)
(-4.99998 -0.484427 -0.570175)
(-4.99998 -0.482253 -0.575869)
(-4.99998 -0.480048 -0.58164)
(-4.99998 -0.477814 -0.587494)
(-4.99998 -0.475548 -0.593427)
(-4.99998 -0.486585 -0.564584)
(-4.99998 -0.47325 -0.599445)
(-4.99998 -0.47092 -0.605551)
(-4.99998 -0.468555 -0.611744)
(-4.99998 -0.0212426 -0.674577)
(-4.99998 -0.016398 -0.674402)
(-4.99998 -0.0115374 -0.674225)
(-4.99998 -0.0260709 -0.674754)
(-4.99998 -0.0584101 -0.680324)
(-4.99998 -0.0538754 -0.679249)
(-4.99998 -0.0493405 -0.678173)
(-4.99998 -0.0629443 -0.681399)
(-4.99998 -0.0448043 -0.677097)
(-4.99998 -0.0720129 -0.68355)
(-4.99998 -0.0674782 -0.682475)
(-4.99998 -0.0934128 -0.695699)
(-4.99998 -0.0891958 -0.692752)
(-4.99998 -0.0850023 -0.68982)
(-4.99998 -0.0976537 -0.698662)
(-4.99998 -0.458875 -0.623876)
(-4.99998 -0.437687 -0.62991)
(-4.99998 -0.423006 -0.626541)
(-4.99998 -0.407852 -0.620304)
(-4.99998 -0.393225 -0.614654)
(-4.99998 -0.388475 -0.612973)
(-4.99998 -0.383763 -0.611306)
(-4.99998 -0.370298 -0.608521)
(-4.99998 -0.365933 -0.607962)
(-4.99998 -0.361586 -0.607405)
(-4.99998 -0.328102 -0.60765)
(-4.99998 -0.324215 -0.609563)
(-4.99998 -0.320311 -0.611484)
(-4.99998 -0.300653 -0.622376)
(-4.99998 -0.296721 -0.625248)
(-4.99998 -0.29276 -0.62814)
(-4.99998 -0.288768 -0.631053)
(-4.99998 -0.284745 -0.633988)
(-4.99998 -0.280691 -0.636948)
(-4.99998 -0.276605 -0.639931)
(-4.99998 -0.357258 -0.606851)
(-4.99998 -0.272486 -0.642938)
(-4.99998 -0.352947 -0.606301)
(-4.99998 -0.268334 -0.64597)
(-4.99998 -0.264147 -0.649025)