/*--------------------------------*- C++ -*----------------------------------*\
| =========                 |                                                 |
| \\      /  F ield         | OpenFOAM: The Open Source CFD Toolbox           |
|  \\    /   O peration     | Version:  3.0.1                                 |
|   \\  /    A nd           | Web:      www.OpenFOAM.org                      |
|    \\/     M anipulation  |                                                 |
\*---------------------------------------------------------------------------*/
FoamFile
{
    version     2.0;
    format      ascii;
    class       featureEdgeMesh;
    location    "constant/triSurface";
    object      right.eMesh;
}
// * * * * * * * * * * * * * * * * * * * * * * * * * * * * * * * * * * * * * //


// points:

1000
(
(5 -0.319574 -0.258379)
(5 -0.343793 -0.189648)
(5 -0.328185 -0.23087)
(5 -0.353173 -0.176219)
(5 -0.347916 -0.182894)
(5 -0.402741 -0.154938)
(5 -0.382642 -0.160805)
(5 -0.31372 -0.275384)
(5 -0.411351 -0.151693)
(5 -0.312357 -0.278717)
(5 -0.308991 -0.285148)
(5 -0.307234 -0.288327)
(5 -0.374645 -0.163787)
(5 -0.305077 -0.291351)
(5 -0.469551 -0.125955)
(5 -0.494313 -0.11339)
(5 -0.501372 -0.108975)
(5 -0.511454 -0.0998563)
(5 -0.515966 -0.0952026)
(5 -0.283192 -0.320763)
(5 -0.280826 -0.323557)
(5 -0.356656 -0.172955)
(5 -0.34544 -0.186215)
(5 -0.526596 -0.0762037)
(5 -0.52879 -0.0713822)
(5 -0.532786 -0.0568693)
(5 -0.534637 -0.0423265)
(5 -0.536004 -0.0228705)
(5 -0.242713 -0.366339)
(5 -0.240163 -0.368811)
(5 -0.536413 -0.00336787)
(5 -0.536045 0.00146892)
(5 -0.231471 -0.375509)
(5 -0.535556 0.00629292)
(5 -0.228364 -0.377573)
(5 -0.534863 0.0110903)
(5 -0.532292 0.0205045)
(5 -0.217137 -0.382399)
(5 -0.530553 0.0251288)
(5 -0.213156 -0.383784)
(5 -0.208628 -0.384768)
(5 -0.526878 0.034306)
(5 -0.203803 -0.385504)
(5 -0.174377 -0.388411)
(5 -0.517977 0.0521982)
(5 -0.515398 0.0565561)
(5 -0.506518 0.0692475)
(5 -0.490224 0.0847008)
(5 -0.494384 0.0809179)
(5 -0.44424 0.118939)
(5 -0.0691132 -0.393505)
(5 -0.417263 0.137535)
(5 -0.000641014 -0.399313)
(5 0.00226154 -0.399428)
(5 0.0195547 -0.39954)
(5 0.0223929 -0.399494)
(5 0.0280798 -0.399277)
(5 0.0477836 -0.39759)
(5 0.0505955 -0.397188)
(5 0.0646279 -0.394539)
(5 -0.374037 0.165837)
(5 -0.305673 0.207654)
(5 -0.301631 0.209786)
(5 -0.276866 0.221508)
(5 0.0674132 -0.393903)
(5 -0.27241 0.223122)
(5 0.153163 -0.369716)
(5 0.134998 -0.37316)
(5 0.162497 -0.369201)
(5 0.151236 -0.369951)
(5 0.164328 -0.369159)
(5 -0.227905 0.236896)
(5 -0.232248 0.235641)
(5 -0.223235 0.237866)
(5 -0.186685 0.24446)
(5 -0.191193 0.243761)
(5 -0.181452 0.24451)
(5 -0.165188 0.243776)
(5 -0.170925 0.244359)
(5 0.260136 -0.367666)
(5 0.263588 -0.367493)
(5 0.277353 -0.366142)
(5 0.279066 -0.365897)
(5 0.280773 -0.365611)
(5 0.292645 -0.36322)
(5 -0.1237 0.236183)
(5 0.357948 -0.344028)
(5 0.361469 -0.343149)
(5 0.446375 -0.347883)
(5 0.449537 -0.348326)
(5 0.46538 -0.349908)
(5 0.374273 -0.340525)
(5 0.468531 -0.350076)
(5 0.378086 -0.339902)
(5 0.382026 -0.339412)
(5 0.386174 -0.339169)
(5 0.388346 -0.339162)
(5 0.48388 -0.349893)
(5 0.390608 -0.339264)
(5 0.48691 -0.349704)
(5 0.395287 -0.339608)
(5 -0.118004 0.234963)
(5 -0.0948268 0.228814)
(5 0.50145 -0.347672)
(5 0.504286 -0.347106)
(5 -0.067167 0.220385)
(5 -0.0261303 0.213426)
(5 -0.0576666 0.218065)
(5 -0.0533162 0.217233)
(5 -0.0225873 0.213066)
(5 -0.0192496 0.212911)
(5 -0.0128124 0.212769)
(5 -0.00976372 0.212854)
(5 0.00715787 0.214471)
(5 0.00981955 0.214854)
(5 0.0697153 0.227752)
(5 0.0424392 0.220575)
(5 0.0447934 0.221113)
(5 0.0866203 0.234255)
(5 0.0907713 0.236021)
(5 0.107225 0.243566)
(5 0.121934 0.249577)
(5 0.530202 -0.341053)
(5 0.533164 -0.340304)
(5 0.141553 0.255245)
(5 0.14375 0.255816)
(5 0.145964 0.256318)
(5 0.579522 -0.326907)
(5 0.601231 -0.321585)
(5 0.170551 0.260545)
(5 0.16831 0.260211)
(5 0.175135 0.260535)
(5 0.179758 0.260118)
(5 0.177431 0.260454)
(5 0.182088 0.259696)
(5 0.658866 -0.314134)
(5 0.626758 -0.317032)
(5 0.704661 -0.315304)
(5 0.641393 -0.315114)
(5 0.646826 -0.314653)
(5 0.652547 -0.314276)
(5 0.814732 -0.327036)
(5 0.679549 -0.31408)
(5 0.856314 -0.329924)
(5 0.19818 0.256406)
(5 0.202717 0.255239)
(5 0.20045 0.255867)
(5 0.209473 0.253081)
(5 0.20723 0.253833)
(5 0.896654 -0.330778)
(5 0.211709 0.252256)
(5 1.02074 -0.330572)
(5 1.04474 -0.332142)
(5 1.06718 -0.332961)
(5 1.08086 -0.331071)
(5 1.00076 -0.329918)
(5 0.966201 -0.329563)
(5 1.17095 -0.318173)
(5 1.18823 -0.315911)
(5 1.10464 -0.325853)
(5 1.13268 -0.321138)
(5 1.11745 -0.32327)
(5 1.20224 -0.312705)
(5 1.2148 -0.309019)
(5 1.22406 -0.304492)
(5 1.23049 -0.299283)
(5 1.2347 -0.293571)
(5 1.2359 -0.287242)
(5 1.23375 -0.280299)
(5 1.2282 -0.272794)
(5 1.22196 -0.265257)
(5 1.21272 -0.25732)
(5 1.20071 -0.249077)
(5 1.15941 -0.21866)
(5 1.18839 -0.240954)
(5 1.17741 -0.233195)
(5 1.16787 -0.225789)
(5 1.10779 -0.172688)
(5 0.270147 0.229009)
(5 0.287748 0.222606)
(5 0.309078 0.215941)
(5 1.07013 -0.142807)
(5 1.0622 -0.137109)
(5 1.01551 -0.105084)
(5 0.975599 -0.0811315)
(5 0.967639 -0.0766395)
(5 0.958049 -0.0722973)
(5 0.948173 -0.0680847)
(5 0.891025 -0.0493868)
(5 0.360053 0.202067)
(5 0.362017 0.201459)
(5 0.844671 -0.0370225)
(5 0.373735 0.197521)
(5 0.375676 0.196815)
(5 0.758598 -0.018159)
(5 0.741499 -0.0140607)
(5 0.733818 -0.0120238)
(5 0.385227 0.192902)
(5 0.727299 -0.00988016)
(5 0.72127 -0.0077269)
(5 0.706327 -0.00107288)
(5 0.70184 0.00113112)
(5 0.685407 0.00978812)
(5 0.407671 0.182172)
(5 0.409579 0.181303)
(5 0.643537 0.0336937)
(5 0.633215 0.0388855)
(5 0.423192 0.175378)
(5 0.619218 0.0452162)
(5 0.608636 0.0495421)
(5 0.601449 0.0521854)
(5 0.471895 0.156829)
(5 0.548357 0.0699557)
(5 0.545613 0.0710642)
(5 0.485033 0.151174)
(5 0.527611 0.0787618)
(5 0.4872 0.150154)
(5 0.52529 0.0799111)
(5 0.489109 0.148878)
(5 0.517739 0.0853835)
(5 0.523287 0.0812299)
(5 0.508883 0.102685)
(5 0.50623 0.114169)
(5 0.5164 0.0870668)
(5 0.508283 0.104904)
(5 0.512866 0.0924167)
(5 0.511759 0.0942468)
(5 0.50336 0.125867)
(5 0.502657 0.12815)
(5 0.494325 0.144534)
(5 0.492853 0.146231)
(5 0.499216 0.136893)
(5 0.498258 0.139025)
(5 -0.327083 -0.234309)
(5 -0.326009 -0.237753)
(5 -0.324935 -0.241195)
(5 -0.333329 -0.217235)
(5 -0.332034 -0.220651)
(5 -0.33074 -0.224061)
(5 -0.323862 -0.244635)
(5 -0.322789 -0.248072)
(5 -0.329449 -0.227465)
(5 -0.335928 -0.210383)
(5 -0.334628 -0.213812)
(5 -0.321718 -0.251509)
(5 -0.320646 -0.254945)
(5 -0.338538 -0.203502)
(5 -0.337232 -0.206946)
(5 -0.318433 -0.261792)
(5 -0.341159 -0.196592)
(5 -0.339848 -0.200051)
(5 -0.317255 -0.265192)
(5 -0.316076 -0.26859)
(5 -0.342475 -0.193124)
(5 -0.350536 -0.179569)
(5 -0.314899 -0.271988)
(5 -0.392685 -0.157932)
(5 -0.418867 -0.148255)
(5 -0.310672 -0.281935)
(5 -0.426544 -0.144738)
(5 -0.4345 -0.141147)
(5 -0.442682 -0.137473)
(5 -0.451396 -0.13373)
(5 -0.460385 -0.129894)
(5 -0.302858 -0.294339)
(5 -0.477775 -0.121867)
(5 -0.300646 -0.297315)
(5 -0.485949 -0.117677)
(5 -0.298441 -0.300281)
(5 -0.296245 -0.303237)
(5 -0.294056 -0.306183)
(5 -0.506379 -0.104447)
(5 -0.291873 -0.309118)
(5 -0.289699 -0.312046)
(5 -0.287531 -0.314963)
(5 -0.518603 -0.090504)
(5 -0.285368 -0.317872)
(5 -0.368473 -0.166893)
(5 -0.362418 -0.16994)
(5 -0.521248 -0.0857719)
(5 -0.278381 -0.326302)
(5 -0.275946 -0.329036)
(5 -0.523912 -0.0810053)
(5 -0.273519 -0.331759)
(5 -0.271101 -0.334472)
(5 -0.530117 -0.0665639)
(5 -0.268694 -0.337177)
(5 -0.531449 -0.0617264)
(5 -0.266294 -0.339871)
(5 -0.263901 -0.342555)
(5 -0.533435 -0.0520312)
(5 -0.261517 -0.34523)
(5 -0.534035 -0.0471846)
(5 -0.259143 -0.347898)
(5 -0.256774 -0.350556)
(5 -0.535043 -0.0374714)
(5 -0.254414 -0.353206)
(5 -0.535365 -0.0326135)
(5 -0.252061 -0.355848)
(5 -0.535687 -0.0277465)
(5 -0.249713 -0.358481)
(5 -0.247373 -0.361108)
(5 -0.536139 -0.0180032)
(5 -0.24504 -0.363728)
(5 -0.536231 -0.0131326)
(5 -0.536322 -0.00825429)
(5 -0.237266 -0.371064)
(5 -0.234362 -0.373292)
(5 -0.224587 -0.379194)
(5 -0.5336 0.0158044)
(5 -0.220845 -0.380803)
(5 -0.528726 0.0297259)
(5 -0.524704 0.0388147)
(5 -0.198714 -0.386006)
(5 -0.522454 0.0432922)
(5 -0.193703 -0.386501)
(5 -0.188766 -0.38699)
(5 -0.183898 -0.387468)
(5 -0.179103 -0.387943)
(5 -0.169545 -0.388746)
(5 -0.164695 -0.389009)
(5 -0.159914 -0.389266)
(5 -0.155209 -0.389523)
(5 -0.150569 -0.389774)
(5 -0.145994 -0.390019)
(5 -0.141407 -0.390199)
(5 -0.136856 -0.390353)
(5 -0.132366 -0.390501)
(5 -0.119342 -0.390988)
(5 -0.115175 -0.391193)
(5 -0.111062 -0.391396)
(5 -0.107006 -0.391599)
(5 -0.103002 -0.391799)
(5 -0.127944 -0.390649)
(5 -0.0990477 -0.391996)
(5 -0.123592 -0.390802)
(5 -0.0951422 -0.39219)
(5 -0.0912846 -0.392381)
(5 -0.0874725 -0.392568)
(5 -0.0837088 -0.392755)
(5 -0.0799885 -0.392939)
(5 -0.520211 0.0477532)
(5 -0.512422 0.0608092)
(5 -0.509463 0.0650395)
(5 -0.498417 0.0770644)
(5 -0.502481 0.0731788)
(5 -0.480719 0.0918331)
(5 -0.485473 0.0882915)
(5 -0.462174 0.105657)
(5 -0.466745 0.102252)
(5 -0.471357 0.0988127)
(5 -0.476014 0.0953401)
(5 -0.453165 0.112373)
(5 -0.457649 0.109031)
(5 -0.448723 0.115684)
(5 -0.435081 0.125256)
(5 -0.439641 0.122114)
(5 -0.42166 0.134508)
(5 -0.426093 0.131453)
(5 -0.430565 0.128369)
(5 -0.0656666 -0.393787)
(5 -0.062256 -0.394066)
(5 -0.0763127 -0.393122)
(5 -0.0588805 -0.394343)
(5 -0.0726813 -0.393304)
(5 -0.0555393 -0.394616)
(5 -0.0522326 -0.394887)
(5 -0.0489595 -0.395156)
(5 -0.0457182 -0.395422)
(5 -0.0425084 -0.395686)
(5 -0.0393292 -0.395947)
(5 -0.412777 0.140486)
(5 -0.399527 0.149165)
(5 -0.403904 0.146299)
(5 -0.40832 0.143406)
(5 -0.0361798 -0.396205)
(5 -0.0330596 -0.396461)
(5 -0.0299678 -0.396713)
(5 -0.0209326 -0.397548)
(5 -0.0179971 -0.397852)
(5 -0.0150852 -0.398152)
(5 -0.0269018 -0.396961)
(5 -0.0121963 -0.398449)
(5 -0.00931146 -0.398719)
(5 -0.0238954 -0.397245)
(5 -0.390891 0.154823)
(5 -0.395191 0.152007)
(5 -0.00641366 -0.39894)
(5 -0.00351439 -0.399127)
(5 0.00518905 -0.399474)
(5 0.00811401 -0.399487)
(5 0.0110133 -0.399499)
(5 0.0138874 -0.39951)
(5 0.016733 -0.399525)
(5 0.0252446 -0.399392)
(5 0.0309268 -0.399105)
(5 0.0337681 -0.398903)
(5 0.036613 -0.398654)
(5 0.0394459 -0.398385)
(5 0.0422525 -0.398116)
(5 0.0450325 -0.397849)
(5 -0.382406 0.160382)
(5 -0.386631 0.157615)
(5 0.0534471 -0.396674)
(5 0.056288 -0.39613)
(5 0.0590994 -0.395591)
(5 0.0618772 -0.395064)
(5 -0.378217 0.163127)
(5 -0.369778 0.168474)
(5 -0.361306 0.173653)
(5 -0.365524 0.171075)
(5 -0.352978 0.178745)
(5 -0.357125 0.176209)
(5 -0.344785 0.183752)
(5 -0.348865 0.181259)
(5 -0.336721 0.188678)
(5 -0.340737 0.186225)
(5 -0.328786 0.19353)
(5 -0.332738 0.191114)
(5 -0.320969 0.198308)
(5 -0.324863 0.195928)
(5 -0.309456 0.205343)
(5 -0.313267 0.203015)
(5 -0.317103 0.20067)
(5 -0.297428 0.211788)
(5 -0.280959 0.219626)
(5 -0.285025 0.21769)
(5 -0.289123 0.215739)
(5 -0.293257 0.213771)
(5 0.0702486 -0.393122)
(5 0.0730823 -0.392291)
(5 0.075879 -0.391474)
(5 0.0786425 -0.390668)
(5 0.0813748 -0.389868)
(5 0.084076 -0.389075)
(5 0.086747 -0.388291)
(5 0.0893848 -0.387521)
(5 0.0920133 -0.386717)
(5 -0.267762 0.22457)
(5 -0.258615 0.227423)
(5 -0.263165 0.226004)
(5 -0.245235 0.231593)
(5 -0.24965 0.230217)
(5 -0.25411 0.228827)
(5 0.094637 -0.385868)
(5 0.0972478 -0.38499)
(5 0.0998255 -0.384129)
(5 0.102377 -0.383269)
(5 0.104898 -0.382423)
(5 0.107392 -0.381584)
(5 0.114638 -0.379299)
(5 0.116991 -0.378583)
(5 0.119321 -0.377875)
(5 0.121632 -0.377164)
(5 0.123916 -0.376469)
(5 0.126179 -0.375782)
(5 0.128423 -0.375092)
(5 0.109845 -0.380785)
(5 0.130644 -0.374414)
(5 0.139155 -0.372301)
(5 0.141202 -0.371904)
(5 0.143236 -0.371506)
(5 0.112257 -0.38003)
(5 0.145257 -0.37111)
(5 0.147264 -0.370719)
(5 0.149259 -0.370324)
(5 0.155044 -0.369616)
(5 0.156919 -0.36951)
(5 0.132836 -0.373769)
(5 0.158785 -0.369408)
(5 0.160645 -0.369304)
(5 0.13709 -0.372711)
(5 0.166143 -0.36916)
(5 0.167951 -0.369166)
(5 0.169756 -0.369169)
(5 0.171554 -0.369176)
(5 0.173349 -0.369178)
(5 0.175138 -0.369186)
(5 0.176924 -0.369187)
(5 0.178705 -0.369196)
(5 0.180482 -0.369196)
(5 0.182255 -0.369205)
(5 0.184025 -0.369205)
(5 0.18579 -0.369215)
(5 0.187553 -0.369215)
(5 0.189312 -0.369224)
(5 0.191068 -0.369224)
(5 0.192821 -0.369234)
(5 0.194571 -0.369233)
(5 0.196319 -0.369236)
(5 0.198065 -0.369227)
(5 0.199812 -0.369189)
(5 0.201557 -0.36914)
(5 0.203298 -0.369101)
(5 0.205038 -0.369052)
(5 -0.236535 0.234305)
(5 -0.240866 0.232957)
(5 0.206774 -0.369013)
(5 0.208509 -0.368965)
(5 -0.218498 0.238736)
(5 -0.209189 0.240449)
(5 -0.213819 0.239599)
(5 -0.195618 0.242947)
(5 -0.200094 0.242125)
(5 -0.204615 0.241291)
(5 -0.176148 0.244434)
(5 -0.134956 0.238241)
(5 -0.140759 0.239306)
(5 -0.146674 0.240386)
(5 -0.158886 0.242622)
(5 -0.152715 0.241491)
(5 0.210241 -0.368926)
(5 0.211971 -0.368877)
(5 0.213699 -0.368839)
(5 0.215426 -0.36879)
(5 0.21715 -0.368752)
(5 0.218874 -0.368703)
(5 0.220595 -0.368665)
(5 0.222316 -0.368617)
(5 0.224036 -0.368579)
(5 0.225754 -0.36853)
(5 0.227472 -0.368492)
(5 0.229189 -0.368444)
(5 0.230906 -0.368406)
(5 0.232622 -0.368358)
(5 0.234338 -0.368319)
(5 0.236054 -0.368272)
(5 0.23777 -0.368233)
(5 0.239485 -0.368186)
(5 0.241202 -0.368146)
(5 0.242918 -0.368099)
(5 0.244636 -0.36806)
(5 0.246353 -0.368013)
(5 0.248072 -0.367973)
(5 0.249791 -0.367927)
(5 0.251512 -0.367887)
(5 0.253234 -0.36784)
(5 0.254957 -0.3678)
(5 0.256682 -0.367753)
(5 0.258408 -0.367711)
(5 0.261862 -0.367589)
(5 0.265308 -0.367345)
(5 0.267025 -0.367171)
(5 0.268744 -0.367002)
(5 0.270463 -0.366829)
(5 0.272184 -0.366659)
(5 0.273905 -0.366485)
(5 0.275629 -0.366316)
(5 0.282472 -0.36529)
(5 0.284167 -0.364946)
(5 0.285863 -0.364604)
(5 0.287558 -0.36426)
(5 0.289254 -0.363917)
(5 0.29095 -0.363574)
(5 0.294317 -0.362774)
(5 0.295989 -0.362325)
(5 0.29766 -0.361877)
(5 0.29933 -0.361425)
(5 -0.129274 0.237204)
(5 0.302671 -0.360528)
(5 0.304342 -0.360081)
(5 0.306011 -0.359626)
(5 0.301 -0.360974)
(5 0.307679 -0.359165)
(5 0.309344 -0.358692)
(5 0.311003 -0.358199)
(5 0.312659 -0.357695)
(5 0.314318 -0.357203)
(5 0.315975 -0.356699)
(5 0.317635 -0.356203)
(5 0.319294 -0.355702)
(5 0.320951 -0.355194)
(5 0.322606 -0.354676)
(5 0.325917 -0.353638)
(5 0.327576 -0.353121)
(5 0.329234 -0.3526)
(5 0.324261 -0.354156)
(5 0.334219 -0.351037)
(5 0.335886 -0.350519)
(5 0.337552 -0.349995)
(5 0.330893 -0.352076)
(5 0.332555 -0.351556)
(5 0.340897 -0.348957)
(5 0.342575 -0.348442)
(5 0.344253 -0.347921)
(5 0.347635 -0.346913)
(5 0.349337 -0.34642)
(5 0.351039 -0.345919)
(5 0.352756 -0.345441)
(5 0.354476 -0.344959)
(5 0.356212 -0.344498)
(5 0.339223 -0.349476)
(5 0.359707 -0.343592)
(5 0.363264 -0.342756)
(5 0.365065 -0.342359)
(5 0.368703 -0.341592)
(5 0.370551 -0.341236)
(5 0.372402 -0.340872)
(5 0.413424 -0.342192)
(5 0.416229 -0.342693)
(5 0.419069 -0.343196)
(5 0.421947 -0.343704)
(5 0.424856 -0.344208)
(5 0.427797 -0.344708)
(5 0.410662 -0.341706)
(5 0.345942 -0.347416)
(5 0.43078 -0.345215)
(5 0.43381 -0.345734)
(5 0.436883 -0.346261)
(5 0.44 -0.346794)
(5 0.443161 -0.347331)
(5 0.452622 -0.348637)
(5 0.455746 -0.348948)
(5 0.407961 -0.34126)
(5 0.36688 -0.341976)
(5 0.458912 -0.349263)
(5 0.462122 -0.349583)
(5 0.405322 -0.340859)
(5 0.376171 -0.340209)
(5 0.471558 -0.35007)
(5 0.474592 -0.350035)
(5 0.380045 -0.33965)
(5 0.402744 -0.340505)
(5 0.4002 -0.340158)
(5 0.384082 -0.339275)
(5 0.477662 -0.349999)
(5 0.480768 -0.349963)
(5 0.397715 -0.33986)
(5 0.392927 -0.339422)
(5 0.489765 -0.34931)
(5 -0.112033 0.233392)
(5 -0.100482 0.230352)
(5 -0.106195 0.231857)
(5 -0.0890238 0.227035)
(5 -0.0723795 0.221919)
(5 -0.0778042 0.223588)
(5 -0.083347 0.225289)
(5 0.492651 -0.348915)
(5 0.495565 -0.348514)
(5 0.498507 -0.348108)
(5 0.507061 -0.346456)
(5 0.509865 -0.345803)
(5 0.512689 -0.345141)
(5 -0.0336227 0.214476)
(5 -0.0374462 0.215009)
(5 -0.0413242 0.215549)
(5 -0.0298523 0.213949)
(5 -0.0452591 0.216098)
(5 -0.062357 0.219198)
(5 -0.00120442 0.213669)
(5 -0.00403439 0.213398)
(5 -0.00688628 0.213125)
(5 0.00160505 0.213937)
(5 -0.0492546 0.216658)
(5 0.00439434 0.214201)
(5 0.0226518 0.217079)
(5 0.0201174 0.216634)
(5 0.0175693 0.216187)
(5 0.0251739 0.217518)
(5 0.0276835 0.217953)
(5 0.0150055 0.215739)
(5 -0.0159973 0.212819)
(5 0.0326572 0.218827)
(5 0.0301758 0.218393)
(5 0.0351276 0.219256)
(5 0.0400288 0.220112)
(5 0.0375836 0.219686)
(5 0.056236 0.224135)
(5 0.0539623 0.223534)
(5 0.0516843 0.222927)
(5 0.0493977 0.222319)
(5 0.0585026 0.224734)
(5 0.0124246 0.215291)
(5 0.0630131 0.225933)
(5 0.0607594 0.225337)
(5 0.0739525 0.229383)
(5 0.0718338 0.228571)
(5 0.0760681 0.230197)
(5 0.0802933 0.231822)
(5 0.0781809 0.231011)
(5 0.0845125 0.233445)
(5 0.0824027 0.232636)
(5 0.0471013 0.221714)
(5 0.0948751 0.237906)
(5 0.0928216 0.236966)
(5 0.096929 0.238849)
(5 0.0652588 0.226529)
(5 0.101041 0.240738)
(5 0.0989829 0.239796)
(5 0.0674978 0.227126)
(5 0.10516 0.242628)
(5 0.103098 0.241686)
(5 0.0886986 0.235132)
(5 0.515544 -0.344478)
(5 0.51842 -0.343804)
(5 0.111412 0.245301)
(5 0.109314 0.244445)
(5 0.115612 0.247021)
(5 0.11351 0.246164)
(5 0.119818 0.248747)
(5 0.117715 0.247882)
(5 0.126284 0.25087)
(5 0.124107 0.250232)
(5 0.132826 0.252744)
(5 0.130645 0.252119)
(5 0.128465 0.251492)
(5 0.521321 -0.343124)
(5 0.524253 -0.342439)
(5 0.527214 -0.34175)
(5 0.135007 0.253368)
(5 0.139371 0.254618)
(5 0.137189 0.253991)
(5 0.536086 -0.339495)
(5 0.541965 -0.337816)
(5 0.544948 -0.336968)
(5 0.547956 -0.336109)
(5 0.539011 -0.338658)
(5 0.550999 -0.335247)
(5 0.554058 -0.334366)
(5 0.557136 -0.33347)
(5 0.560238 -0.33256)
(5 0.563369 -0.33164)
(5 0.566535 -0.330713)
(5 0.56973 -0.329775)
(5 0.148202 0.256712)
(5 0.152677 0.257487)
(5 0.15044 0.257101)
(5 0.157147 0.258266)
(5 0.154912 0.25788)
(5 0.163846 0.259432)
(5 0.161613 0.259046)
(5 0.159381 0.258653)
(5 0.572961 -0.328829)
(5 0.576226 -0.327874)
(5 0.590127 -0.32426)
(5 0.593775 -0.323375)
(5 0.597467 -0.322478)
(5 0.586523 -0.325135)
(5 0.605317 -0.320846)
(5 0.609462 -0.320095)
(5 0.58297 -0.326006)
(5 0.613666 -0.319333)
(5 0.617931 -0.318558)
(5 0.622261 -0.317773)
(5 0.166078 0.259821)
(5 0.172842 0.260559)
(5 0.184416 0.259219)
(5 0.18904 0.258278)
(5 0.186733 0.258748)
(5 0.195908 0.256879)
(5 0.193628 0.257343)
(5 0.191339 0.257807)
(5 0.665585 -0.314114)
(5 0.672472 -0.314094)
(5 0.687556 -0.314422)
(5 0.69598 -0.314857)
(5 0.631551 -0.316403)
(5 0.714607 -0.316216)
(5 0.725104 -0.317244)
(5 0.736 -0.31831)
(5 0.636428 -0.315764)
(5 0.759816 -0.320878)
(5 0.772869 -0.322406)
(5 0.786504 -0.324001)
(5 0.800423 -0.325532)
(5 0.747346 -0.319429)
(5 0.828375 -0.328093)
(5 0.84206 -0.32899)
(5 0.204979 0.254531)
(5 0.869543 -0.330299)
(5 0.882848 -0.330534)
(5 0.909886 -0.330649)
(5 0.213936 0.251388)
(5 0.218352 0.249653)
(5 0.21615 0.250519)
(5 0.222721 0.247935)
(5 0.220542 0.248796)
(5 0.229189 0.245381)
(5 0.227044 0.246236)
(5 0.224888 0.247083)
(5 0.923279 -0.330409)
(5 0.936901 -0.330078)
(5 0.951054 -0.329751)
(5 1.09274 -0.32853)
(5 0.982952 -0.329685)
(5 1.15138 -0.319667)
(5 0.231324 0.244531)
(5 0.235562 0.242835)
(5 0.233448 0.243682)
(5 0.23976 0.241156)
(5 0.237666 0.241998)
(5 0.245986 0.23867)
(5 0.24392 0.239496)
(5 0.241844 0.240323)
(5 0.248043 0.237848)
(5 0.250091 0.237026)
(5 1.15177 -0.211751)
(5 1.14426 -0.204966)
(5 1.13674 -0.198285)
(5 1.12931 -0.191716)
(5 1.12201 -0.185263)
(5 1.11484 -0.178921)
(5 0.254164 0.235401)
(5 0.252132 0.236212)
(5 0.258203 0.233783)
(5 0.256188 0.234593)
(5 0.264207 0.231384)
(5 0.262213 0.232185)
(5 0.260212 0.232981)
(5 0.268174 0.229799)
(5 0.266194 0.230594)
(5 0.281921 0.224711)
(5 0.279971 0.225422)
(5 0.278015 0.226124)
(5 0.28581 0.223309)
(5 0.283868 0.224011)
(5 0.295525 0.220128)
(5 0.293583 0.220735)
(5 0.291636 0.221338)
(5 0.299405 0.218923)
(5 0.297467 0.219528)
(5 0.301342 0.218322)
(5 0.303276 0.21772)
(5 1.10014 -0.166501)
(5 0.305209 0.217118)
(5 1.09242 -0.160413)
(5 0.307144 0.216531)
(5 1.08486 -0.154437)
(5 0.31297 0.214872)
(5 0.311024 0.215407)
(5 1.07743 -0.148569)
(5 0.316863 0.213805)
(5 0.314917 0.214341)
(5 0.318809 0.213271)
(5 0.326636 0.211245)
(5 0.324678 0.211753)
(5 0.322719 0.212253)
(5 1.05402 -0.131504)
(5 0.328595 0.210736)
(5 1.04601 -0.126011)
(5 0.330553 0.21022)
(5 1.03816 -0.120626)
(5 0.320762 0.212758)
(5 1.03046 -0.115345)
(5 0.332513 0.209704)
(5 1.02292 -0.110166)
(5 0.334474 0.209184)
(5 0.336437 0.208665)
(5 1.00738 -0.100092)
(5 0.338403 0.20815)
(5 0.999187 -0.0952026)
(5 0.340369 0.207627)
(5 0.991161 -0.090415)
(5 0.344309 0.206583)
(5 0.34234 0.207111)
(5 0.983299 -0.0857257)
(5 0.346274 0.206037)
(5 0.348238 0.20548)
(5 0.350201 0.204914)
(5 0.936047 -0.0640934)
(5 0.352165 0.204345)
(5 0.92431 -0.0602326)
(5 0.354133 0.203777)
(5 0.912955 -0.0564953)
(5 0.356105 0.203213)
(5 0.901955 -0.0528758)
(5 0.358077 0.20264)
(5 0.878813 -0.0461291)
(5 0.867035 -0.0429863)
(5 0.363964 0.200807)
(5 0.85566 -0.0399528)
(5 0.832952 -0.0343005)
(5 0.365912 0.200151)
(5 0.821233 -0.0317223)
(5 0.367864 0.199496)
(5 0.809942 -0.0292396)
(5 0.369821 0.198844)
(5 0.799057 -0.0268465)
(5 0.371777 0.198183)
(5 0.788558 -0.0245379)
(5 0.77815 -0.0223456)
(5 0.768037 -0.0202396)
(5 0.377583 0.196036)
(5 0.37949 0.195253)
(5 0.749917 -0.0160781)
(5 0.381401 0.194471)
(5 0.383313 0.193688)
(5 0.387105 0.192044)
(5 0.716198 -0.00546834)
(5 0.388969 0.191158)
(5 0.711216 -0.0032512)
(5 0.390835 0.190273)
(5 0.697637 0.0033439)
(5 0.392699 0.18938)
(5 0.6935 0.0055242)
(5 0.394568 0.18849)
(5 0.689425 0.00767225)
(5 0.396437 0.187597)
(5 0.289692 0.221963)
(5 0.681602 0.01191)
(5 0.398304 0.186698)
(5 0.677936 0.0140242)
(5 0.400174 0.185796)
(5 0.674319 0.0161108)
(5 0.402045 0.184893)
(5 0.670748 0.0181705)
(5 0.403917 0.183986)
(5 0.667247 0.0202102)
(5 0.663804 0.0222282)
(5 0.405793 0.183081)
(5 0.660403 0.0242214)
(5 0.657023 0.0261846)
(5 0.653606 0.0281018)
(5 0.411511 0.180464)
(5 0.65022 0.0299922)
(5 0.413443 0.179617)
(5 0.646876 0.0318594)
(5 0.415386 0.178778)
(5 0.417328 0.177928)
(5 0.640083 0.0354562)
(5 0.419278 0.17708)
(5 0.636658 0.037192)
(5 0.421234 0.176232)
(5 0.629685 0.0405135)
(5 0.425191 0.17457)
(5 0.626166 0.0421077)
(5 0.427207 0.173775)
(5 0.622697 0.0436821)
(5 0.42924 0.17299)
(5 0.431281 0.172205)
(5 0.615673 0.0466893)
(5 0.43333 0.171416)
(5 0.612163 0.0481378)
(5 0.435383 0.17062)
(5 0.437446 0.169825)
(5 0.605023 0.0508757)
(5 0.43952 0.169029)
(5 0.441597 0.168225)
(5 0.597804 0.0534281)
(5 0.443686 0.167421)
(5 0.594157 0.0546305)
(5 0.44578 0.166611)
(5 0.590561 0.0558143)
(5 0.447884 0.165797)
(5 0.587023 0.0569838)
(5 0.450006 0.164991)
(5 0.583553 0.0581444)
(5 0.452135 0.164178)
(5 0.580131 0.0592887)
(5 0.454288 0.163379)
(5 0.576757 0.0604174)
(5 0.456453 0.162578)
(5 0.573429 0.0615314)
(5 0.458623 0.161766)
(5 0.570144 0.0626293)
(5 0.46081 0.160958)
(5 0.566906 0.0637149)
(5 0.463005 0.160141)
(5 0.563704 0.064783)
(5 0.465209 0.159319)
(5 0.560553 0.0658417)
(5 0.467431 0.158499)
(5 0.557432 0.0668822)
(5 0.469658 0.157667)
(5 0.554358 0.0679138)
(5 0.551315 0.0689286)
(5 0.474078 0.155919)
(5 0.476244 0.154976)
(5 0.478426 0.154034)
(5 0.542957 0.0721931)
(5 0.480616 0.153084)
(5 0.540332 0.0733123)
(5 0.482816 0.152129)
(5 0.537732 0.0744204)
(5 0.535155 0.0755157)
(5 0.532608 0.076603)
(5 0.530084 0.0776797)
(5 0.276055 0.226834)
(5 0.274089 0.227547)
(5 0.272119 0.228266)
(5 0.521427 0.0826205)
(5 0.519583 0.0840078)
(5 0.510325 0.0984504)
(5 0.509605 0.100564)
(5 0.507255 0.109506)
(5 0.506744 0.111831)
(5 0.505669 0.116488)
(5 0.507764 0.107194)
(5 0.515208 0.0888411)
(5 0.5051 0.118815)
(5 0.51403 0.0906246)
(5 0.504527 0.121155)
(5 0.50395 0.123509)
(5 0.511043 0.0963448)
(5 0.501802 0.130322)
(5 0.490989 0.147567)
(5 0.496959 0.140868)
(5 0.495645 0.142702)
(5 0.500944 0.132504)
(5 0.500083 0.134694)
)


// edges:

1000
(
(233 234)
(234 235)
(236 237)
(237 238)
(235 239)
(239 240)
(238 241)
(242 243)
(243 236)
(240 244)
(244 245)
(246 247)
(247 242)
(245 0)
(0 248)
(249 250)
(250 246)
(248 251)
(251 252)
(1 253)
(253 249)
(2 233)
(3 254)
(254 4)
(252 255)
(5 256)
(256 6)
(255 7)
(8 5)
(7 9)
(257 8)
(9 258)
(259 257)
(258 10)
(260 259)
(10 11)
(6 12)
(11 13)
(261 260)
(241 2)
(262 261)
(263 262)
(14 263)
(13 264)
(265 14)
(264 266)
(267 265)
(266 268)
(15 267)
(268 269)
(16 15)
(269 270)
(271 16)
(270 272)
(17 271)
(272 273)
(18 17)
(273 274)
(275 18)
(274 276)
(12 277)
(276 19)
(277 278)
(19 20)
(279 275)
(20 280)
(278 21)
(280 281)
(282 279)
(22 1)
(23 282)
(281 283)
(24 23)
(283 284)
(285 24)
(284 286)
(287 285)
(286 288)
(25 287)
(288 289)
(290 25)
(289 291)
(292 290)
(291 293)
(26 292)
(293 294)
(295 26)
(294 296)
(297 295)
(296 298)
(299 297)
(298 300)
(27 299)
(300 301)
(302 27)
(301 303)
(304 302)
(303 28)
(305 304)
(28 29)
(30 305)
(29 306)
(21 3)
(306 307)
(31 30)
(307 32)
(33 31)
(32 34)
(35 33)
(34 308)
(309 35)
(308 310)
(36 309)
(310 37)
(38 36)
(37 39)
(311 38)
(39 40)
(41 311)
(40 42)
(312 41)
(42 313)
(314 312)
(313 315)
(4 22)
(315 316)
(316 317)
(318 43)
(43 319)
(317 318)
(319 320)
(320 321)
(321 322)
(322 323)
(323 324)
(324 325)
(325 326)
(326 327)
(328 329)
(329 330)
(330 331)
(331 332)
(327 333)
(332 334)
(333 335)
(334 336)
(336 337)
(337 338)
(335 328)
(338 339)
(339 340)
(44 341)
(341 314)
(342 45)
(45 44)
(46 343)
(343 342)
(344 345)
(345 46)
(47 48)
(48 344)
(346 347)
(347 47)
(348 349)
(349 350)
(351 346)
(350 351)
(352 353)
(353 348)
(49 354)
(354 352)
(355 356)
(356 49)
(357 358)
(358 359)
(359 355)
(50 360)
(360 361)
(340 362)
(361 363)
(362 364)
(363 365)
(366 367)
(367 368)
(364 50)
(368 369)
(369 370)
(365 366)
(371 51)
(51 357)
(372 373)
(373 374)
(374 371)
(370 375)
(375 376)
(376 377)
(378 379)
(379 380)
(377 381)
(380 382)
(382 383)
(384 378)
(381 384)
(385 386)
(386 372)
(383 387)
(387 388)
(388 52)
(52 53)
(53 389)
(389 390)
(390 391)
(391 392)
(392 393)
(393 54)
(54 55)
(55 394)
(394 56)
(56 395)
(395 396)
(396 397)
(397 398)
(398 399)
(400 57)
(57 58)
(399 400)
(401 402)
(402 385)
(58 403)
(403 404)
(405 406)
(406 59)
(404 405)
(407 401)
(408 60)
(60 407)
(409 410)
(410 408)
(411 412)
(412 409)
(413 414)
(414 411)
(415 416)
(416 413)
(417 418)
(418 415)
(419 420)
(420 417)
(421 422)
(422 423)
(423 419)
(61 421)
(424 62)
(62 61)
(425 426)
(426 427)
(428 424)
(63 425)
(427 428)
(59 64)
(64 429)
(429 430)
(430 431)
(431 432)
(432 433)
(433 434)
(435 436)
(436 437)
(434 435)
(438 65)
(65 63)
(439 440)
(440 438)
(441 442)
(442 443)
(443 439)
(437 444)
(444 445)
(445 446)
(446 447)
(447 448)
(448 449)
(450 451)
(451 452)
(452 453)
(454 455)
(455 456)
(453 454)
(449 457)
(456 458)
(459 460)
(460 461)
(457 462)
(461 463)
(462 450)
(463 464)
(464 465)
(66 466)
(466 467)
(458 468)
(467 469)
(469 470)
(468 67)
(470 68)
(67 471)
(472 473)
(473 474)
(471 459)
(474 475)
(475 476)
(476 477)
(477 478)
(465 69)
(478 479)
(479 480)
(69 66)
(480 481)
(481 482)
(482 483)
(483 484)
(68 70)
(484 485)
(485 486)
(70 472)
(486 487)
(487 488)
(488 489)
(489 490)
(490 491)
(492 493)
(493 494)
(491 492)
(495 496)
(496 441)
(494 497)
(497 498)
(71 72)
(72 495)
(499 73)
(73 71)
(500 501)
(501 499)
(502 503)
(503 504)
(504 500)
(74 75)
(75 502)
(505 76)
(76 74)
(77 78)
(78 505)
(506 507)
(507 508)
(509 77)
(508 510)
(510 509)
(498 511)
(511 512)
(512 513)
(513 514)
(514 515)
(515 516)
(516 517)
(517 518)
(518 519)
(519 520)
(520 521)
(521 522)
(522 523)
(523 524)
(524 525)
(525 526)
(526 527)
(527 528)
(528 529)
(529 530)
(530 531)
(531 532)
(532 533)
(533 534)
(534 535)
(535 536)
(536 537)
(537 538)
(538 539)
(539 79)
(79 540)
(540 80)
(80 541)
(541 542)
(542 543)
(543 544)
(544 545)
(545 546)
(546 547)
(547 81)
(81 82)
(82 83)
(83 548)
(548 549)
(549 550)
(550 551)
(551 552)
(552 553)
(553 84)
(84 554)
(555 556)
(556 557)
(554 555)
(85 558)
(558 506)
(559 560)
(560 561)
(557 562)
(562 559)
(561 563)
(563 564)
(564 565)
(565 566)
(566 567)
(567 568)
(568 569)
(569 570)
(570 571)
(571 572)
(573 574)
(574 575)
(572 576)
(576 573)
(577 578)
(578 579)
(575 580)
(581 577)
(582 583)
(583 584)
(585 586)
(586 587)
(580 581)
(587 588)
(588 589)
(589 590)
(590 86)
(579 591)
(86 592)
(592 87)
(87 593)
(593 594)
(591 582)
(595 596)
(596 597)
(598 599)
(599 600)
(600 601)
(601 602)
(602 603)
(604 598)
(584 605)
(603 606)
(605 585)
(606 607)
(607 608)
(608 609)
(609 610)
(610 88)
(88 89)
(89 611)
(611 612)
(613 604)
(594 614)
(612 615)
(614 595)
(615 616)
(616 90)
(617 613)
(597 91)
(90 92)
(91 618)
(92 619)
(618 93)
(619 620)
(93 621)
(622 617)
(621 94)
(623 622)
(94 624)
(620 625)
(624 95)
(625 626)
(95 96)
(626 97)
(96 98)
(627 623)
(98 628)
(97 99)
(628 100)
(99 629)
(100 627)
(630 101)
(101 85)
(631 632)
(632 630)
(633 102)
(102 631)
(634 635)
(635 636)
(636 633)
(629 637)
(637 638)
(638 639)
(639 103)
(103 104)
(640 641)
(641 642)
(104 640)
(643 644)
(644 645)
(646 643)
(105 634)
(645 647)
(648 105)
(106 646)
(107 648)
(649 650)
(650 651)
(108 107)
(652 649)
(653 108)
(654 652)
(647 653)
(655 656)
(656 657)
(658 655)
(109 106)
(659 658)
(110 109)
(657 660)
(661 110)
(662 663)
(663 659)
(111 661)
(664 662)
(112 111)
(665 666)
(666 664)
(651 112)
(667 668)
(668 669)
(113 654)
(669 670)
(114 113)
(671 667)
(672 114)
(673 674)
(674 671)
(660 672)
(675 676)
(676 115)
(677 675)
(678 679)
(679 677)
(116 665)
(680 681)
(681 678)
(117 116)
(682 117)
(670 682)
(118 680)
(683 684)
(684 119)
(685 683)
(686 673)
(687 688)
(688 685)
(689 686)
(690 691)
(691 687)
(115 689)
(692 118)
(120 690)
(119 692)
(642 693)
(693 694)
(695 696)
(696 120)
(697 698)
(698 695)
(121 699)
(699 700)
(700 697)
(701 702)
(702 121)
(703 704)
(704 705)
(705 701)
(694 706)
(707 708)
(708 122)
(122 123)
(706 707)
(709 703)
(124 710)
(710 711)
(711 709)
(123 712)
(713 714)
(714 715)
(712 716)
(715 717)
(717 718)
(716 713)
(718 719)
(719 720)
(721 722)
(722 723)
(720 721)
(125 124)
(724 126)
(126 125)
(725 726)
(726 724)
(727 728)
(728 725)
(729 730)
(730 731)
(731 727)
(732 733)
(733 127)
(723 732)
(734 735)
(735 736)
(737 734)
(128 738)
(738 739)
(127 740)
(739 741)
(740 737)
(741 742)
(742 743)
(736 128)
(744 729)
(129 130)
(130 744)
(131 745)
(745 129)
(132 133)
(133 131)