/*--------------------------------*- C++ -*----------------------------------*\
| =========                 |                                                 |
| \\      /  F ield         | OpenFOAM: The Open Source CFD Toolbox           |
|  \\    /   O peration     | Version:  3.0.0                                 |
|   \\  /    A nd           | Web:      www.OpenFOAM.org                      |
|    \\/     M anipulation  |                                                 |
\*---------------------------------------------------------------------------*/
FoamFile
{
    version     2.0;
    format      ascii;
    class       dictionary;
    object      surfaceFeatureExtractDict;
}
// * * * * * * * * * * * * * * * * * * * * * * * * * * * * * * * * * * * * * //
left.stl
{
    extractionMethod extractFromSurface;
    extractFromSurfaceCoeffs 
    {
        includedAngle 179;
    }      
}

mapconnect.stl
{   
    extractionMethod extractFromSurface;
    extractFromSurfaceCoeffs 
    {
        includedAngle     179;
    }
}

right.stl
{   
    extractionMethod extractFromSurface;
    extractFromSurfaceCoeffs
    {
        includedAngle     179;
    }
}

// **********************************************************************//














